-------------------------------------------------------
          Amber 21 SANDER                              2021
          -------------------------------------------------------

  [-O]verwriting output

File Assignments:

 Here is the input file:

Density equilibration
&cntrl
  imin= 0,                       ! Run molecular dynamics.
  nstlim=30000,                  ! Number of MD-steps to be performed.
  dt=0.002,                      ! Time step (ps)
  irest=1,                       ! Restart the simulation and read coordinates and velocities from the restart file provided in -c
  ntx=5,                         ! Initial file contains coordinates and velocities.
  ntpr=500, ntwx=500, ntwr=500,  ! Output options
  cut=8.0,                       ! non-bond cut off
  temp0=298,                     ! Temperature
  ntt=3, gamma_ln=3.0,           ! Temperature scaling using Langevin dynamics with the collision frequency in gamma_ln (psâˆ’1)
  ntb=2,                         ! Periodic conditiond at constant pressure
  ntc=2, ntf=2,                  ! Constrain lengths of bonds having hydrogen atoms (SHAKE)
  ntp=1, taup=2.0,               ! Pressure scaling
  iwrap=1, ioutfm=1,             ! Output trajectory options
/

--------------------------------------------------------------------------------
   1.  RESOURCE   USE:
--------------------------------------------------------------------------------

 getting box info from netcdf restart file
 NATOM  =    5071 NTYPES =       9 NBONH =    5061 MBONA  =       9
 NTHETH =      25 MTHETA =      11 NPHIH =      43 MPHIA  =      24
 NHPARM =       0 NPARM  =       0 NNB   =    6831 NRES   =    1686
 NBONA  =       9 NTHETA =      11 NPHIA =      24 NUMBND =      13
 NUMANG =      21 NPTRA  =      14 NATYP =      10 NPHB   =       0
 IFBOX  =       1 NMXRS  =      10 IFCAP =       0 NEXTRA =       0
 NCOPY  =       0

     BOX TYPE: RECTILINEAR

--------------------------------------------------------------------------------
   2.  CONTROL  DATA  FOR  THE  RUN
--------------------------------------------------------------------------------

ACE

General flags:
     imin    =       0, nmropt  =       0

Nature and format of input:
     ntx     =       5, irest   =       1, ntrx    =       1

Nature and format of output:
     ntxo    =       2, ntpr    =     500, ntrx    =       1, ntwr    =     500
     iwrap   =       1, ntwx    =     500, ntwv    =       0, ntwe    =       0
     ioutfm  =       1, ntwprt  =       0, idecomp =       0, rbornstat=      0

Potential function:
     ntf     =       2, ntb     =       2, igb     =       0, nsnb    =      25
     ipol    =       0, gbsa    =       0, iesp    =       0
     dielc   =   1.00000, cut     =   8.00000, intdiel =   1.00000

Frozen or restrained atoms:
     ibelly  =       0, ntr     =       0

Molecular dynamics:
     nstlim  =     30000, nscm    =      1000, nrespa  =         1
     t       =   0.00000, dt      =   0.00200, vlimit  =  20.00000

Langevin dynamics temperature regulation:
     ig      =   71277
     temp0   = 298.00000, tempi   =   0.00000, gamma_ln=   3.00000

Pressure regulation:
     ntp     =       1
     pres0   =   1.00000, comp    =  44.60000, taup    =   2.00000

SHAKE:
     ntc     =       2, jfastw  =       0
     tol     =   0.00001

Ewald parameters:
     verbose =       0, ew_type =       0, nbflag  =       1, use_pme =       1
     vdwmeth =       1, eedmeth =       1, netfrc  =       1
     Box X =   41.123   Box Y =   43.772   Box Z =   39.271
     Alpha =   90.000   Beta  =   90.000   Gamma =   90.000
     NFFT1 =   48       NFFT2 =   45       NFFT3 =   40
     Cutoff=    8.000   Tol   =0.100E-04
     Ewald Coefficient =  0.34864
     Interpolation order =    4

--------------------------------------------------------------------------------
   3.  ATOMIC COORDINATES AND VELOCITIES
--------------------------------------------------------------------------------

ACE
 begin time read from input coords =    30.000 ps

 Number of triangulated 3-point waters found:     1683

     Sum of charges from parm topology file =  -0.00000000
     Forcing neutrality...

--------------------------------------------------------------------------------
   4.  RESULTS
 NSTEP =      500   TIME(PS) =      31.000  TEMP(K) =   287.24  PRESS =  -370.3
 Etot   =    -13037.1587  EKtot   =      2897.3640  EPtot      =    -15934.5227
 BOND   =         2.7440  ANGLE   =        14.8720  DIHED      =         5.4722
 1-4 NB =         4.6022  1-4 EEL =        47.3446  VDWAALS    =      1498.9229
 EELEC  =    -17508.6768  EHBOND  =         0.0000  RESTRAINT  =         0.0000
 EKCMT  =      1458.8866  VIRIAL  =      2016.7817  VOLUME     =     69780.5734
 CMAP   =         0.1963
                                                    Density    =         0.7250
 Ewald error estimate:   0.1436E-03
 ------------------------------------------------------------------------------

      A V E R A G E S   O V E R   30000 S T E P S

 NSTEP =    30000   TIME(PS) =      90.000  TEMP(K) =   297.62  PRESS =  -259.8
 Etot   =    -13305.2617  EKtot   =      3002.0913  EPtot      =    -16307.3529
 BOND   =         3.2789  ANGLE   =         9.3862  DIHED      =         4.7378
 1-4 NB =         3.5220  1-4 EEL =        44.8267  VDWAALS    =      1439.3384
 EELEC  =    -17812.7963  EHBOND  =         0.0000  RESTRAINT  =         0.0000
 EKCMT  =      1500.0357  VIRIAL  =      1834.8216  VOLUME     =     55153.0160
 CMAP   =         0.3535
                                                    Density    =         0.9298
 Ewald error estimate:   0.1462E-03
 ------------------------------------------------------------------------------

      R M S  F L U C T U A T I O N S

 NSTEP =    30000   TIME(PS) =      90.000  TEMP(K) =     4.11  PRESS =   349.6
 Etot   =       218.7637  EKtot   =        41.4309  EPtot      =       216.8493
 BOND   =         1.5233  ANGLE   =         2.4489  DIHED      =         1.1419
 1-4 NB =         0.8154  1-4 EEL =         2.0497  VDWAALS    =        55.8395
 EELEC  =       213.1832  EHBOND  =         0.0000  RESTRAINT  =         0.0000
 EKCMT  =        29.0498  VIRIAL  =       431.7958  VOLUME     =      6720.9709
 CMAP   =         0.6558
                                                    Density    =         0.1031
 Ewald error estimate:   0.1104E-03
 ------------------------------------------------------------------------------
